OPT_V10/Two_days_first_run/powerflow_results_t13.txt
Pandapower Network Debug Info
==================================================

BUS:
       vm_pu  va_degree      p_mw    q_mvar
0   0.998963   0.376137 -0.001758  0.001080
1   0.998725   0.627465 -0.002320  0.002371
2   0.997955   0.794757 -0.001034  0.002411
3   0.997250   0.533976 -0.000406  0.003794
4   0.994876   0.336899  0.000310  0.004006
5   0.996880   0.371833 -0.000024  0.005831
6   0.997528   0.492765 -0.001633  0.001138
7   1.000132   0.120521 -0.001733  0.001673
8   0.999085   0.072850 -0.001001  0.002492
9   0.999872   0.003172  0.007395  0.009733
10  0.999877   0.003093  0.005203  0.010106
11  0.999890   0.002812  0.008416  0.011091
12  0.999840   0.003418  0.008278  0.005069
13  0.999816   0.003712  0.008009  0.010884
14  0.999824   0.003582  0.012845  0.009759
15  0.999953   0.001659  0.000000  0.000000
16  0.999953   0.001665  0.000000  0.000000
17  0.999844   0.003445  0.000000  0.000000
18  0.999844   0.003454  0.000000  0.000000
19  1.000000   0.000000 -0.015615 -0.045664
20  1.000000   0.000006  0.000000  0.000000
21  1.000000   0.000000 -0.025154 -0.045914
22  1.000000   0.000006  0.000000  0.000000
--------------------------------------------------

LINE:
    p_from_mw  q_from_mvar   p_to_mw  q_to_mvar         pl_mw       ql_mvar  i_from_ka   i_to_ka      i_ka  vm_from_pu  va_from_degree  vm_to_pu  va_to_degree  loading_percent
0    0.015605     0.041664 -0.015603  -0.041662  1.936093e-06  1.509603e-06   0.001712  0.001712  0.001712    1.000000        0.000006  0.999953      0.001659         0.744534
1    0.025144     0.041914 -0.025137  -0.041909  6.426141e-06  5.010568e-06   0.001881  0.001881  0.001881    1.000000        0.000006  0.999844      0.003445         0.817956
2    0.021016     0.030933 -0.021015  -0.030931  1.934764e-06  1.508567e-06   0.001439  0.001439  0.001439    0.999953        0.001659  0.999890      0.002812         0.625861
3    0.008278     0.005069 -0.008278  -0.005069  3.259466e-08  2.541459e-08   0.000374  0.000374  0.000374    0.999844        0.003445  0.999840      0.003418         0.162468
4    0.020855     0.020643 -0.020854  -0.020643  4.709668e-07  3.672206e-07   0.001130  0.001130  0.001130    0.999844        0.003445  0.999824      0.003582         0.491138
5   -0.005424     0.009729  0.005482  -0.009684  5.803978e-05  4.525457e-05   0.016079  0.016079  0.016079    0.999953        0.001665  0.998963      0.376137         6.990708
6   -0.001613     0.007003  0.001653  -0.006971  4.007394e-05  3.124631e-05   0.010374  0.010374  0.010374    0.999844        0.003454  0.996880      0.371833         4.510273
7   -0.001729     0.001676  0.001733  -0.001673  3.918954e-06  3.055673e-06   0.003476  0.003476  0.003476    0.999844        0.003454  1.000132      0.120521         1.511435
8   -0.000664     0.006519  0.000671  -0.006514  7.385662e-06  5.758723e-06   0.009460  0.009460  0.009460    0.999844        0.003454  0.999085      0.072850         4.113021
9    0.007395     0.009734 -0.007395  -0.009733  5.168569e-08  4.030018e-08   0.000471  0.000471  0.000471    0.999877        0.003093  0.999872      0.003172         0.204587
10   0.012598     0.019840 -0.012598  -0.019840  2.701937e-07  2.106744e-07   0.000905  0.000905  0.000905    0.999890        0.002812  0.999877      0.003093         0.393345
11   0.008009     0.010884 -0.008009  -0.010884  8.934025e-08  6.966007e-08   0.000520  0.000520  0.000520    0.999824        0.003582  0.999816      0.003712         0.226183
12   0.003348    -0.004787 -0.003328   0.004803  2.023863e-05  1.578039e-05   0.008442  0.008442  0.008442    0.998725        0.627465  0.998963      0.376137         3.670446
13   0.000406    -0.003794 -0.000396   0.003801  9.773708e-06  7.620721e-06   0.005522  0.005522  0.005522    0.997250        0.533976  0.998963      0.376137         2.401019
14   0.001034    -0.002411 -0.001028   0.002416  6.249912e-06  4.873159e-06   0.003794  0.003794  0.003794    0.997955        0.794757  0.998725      0.627465         1.649536
15   0.000329     0.004022 -0.000310  -0.004006  1.984722e-05  1.547521e-05   0.005829  0.005829  0.005829    0.999085        0.072850  0.994876      0.336899         2.534545
16   0.001633    -0.001138 -0.001629   0.001140  3.464829e-06  2.701584e-06   0.002879  0.002879  0.002879    0.997528        0.492765  0.996880      0.371833         1.251923
--------------------------------------------------

TRAFO:
    p_hv_mw  q_hv_mvar   p_lv_mw  q_lv_mvar    pl_mw  ql_mvar   i_hv_ka   i_lv_ka  vm_hv_pu  va_hv_degree  vm_lv_pu  va_lv_degree  loading_percent
0 -0.005414   0.010729  0.005424  -0.009729  0.00001    0.001  0.000463  0.016079  0.999953      0.001659  0.999953      0.001665         0.120183
1 -0.003996   0.016197  0.004006  -0.015198  0.00001    0.001  0.000642  0.022689  0.999844      0.003445  0.999844      0.003454         0.166856
2  0.015615   0.045664 -0.015605  -0.041664  0.00001    0.004  0.000398  0.001712  1.000000      0.000000  1.000000      0.000006         0.120649
3  0.025154   0.045914 -0.025144  -0.041914  0.00001    0.004  0.000432  0.001881  1.000000      0.000000  1.000000      0.000006         0.130882
--------------------------------------------------
